31
Lattice="7.872856191053 0.0 0.0 0.0 7.872856191053 0.0 0.0 0.0 21.56695" Properties=species:S:1:pos:R:3:tags:I:1:initial_magmoms:R:1:forces:R:3 energy=-149383.516643201 pbc="T T F"
Cu       0.00000000      -0.00000000       3.58870000        3       0.00000000       0.00000000       0.00000000       0.00000000
Cu       2.62428540      -0.00000000       3.58870000        3       0.00000000       0.00000000       0.00000000       0.00000000
Cu       5.24857079      -0.00000000       3.58870000        3       0.00000000       0.00000000       0.00000000       0.00000000
Cu       0.00000000       2.62428540       3.58870000        3       0.00000000       0.00000000       0.00000000       0.00000000
Cu       2.62428540       2.62428540       3.58870000        3       0.00000000       0.00000000       0.00000000       0.00000000
Cu       5.24857079       2.62428540       3.58870000        3       0.00000000       0.00000000       0.00000000       0.00000000
Cu       0.00000000       5.24857079       3.58870000        3       0.00000000       0.00000000       0.00000000       0.00000000
Cu       2.62428540       5.24857079       3.58870000        3       0.00000000       0.00000000       0.00000000       0.00000000
Cu       5.24857079       5.24857079       3.58870000        3       0.00000000       0.00000000       0.00000000       0.00000000
Cu       1.31211342       1.31397011       5.42568063        2       0.00000000       0.00000000       0.00000000       0.00000000
Cu       3.92582671       1.30392176       5.44803675        2       0.00000000       0.00000000       0.00000000       0.00000000
Cu       6.57123570       1.30404304       5.44797887        2       0.00000000       0.00000000       0.00000000       0.00000000
Cu       1.31214371       3.93643317       5.47450036        2       0.00000000       0.00000000       0.00000000       0.00000000
Cu       3.92512754       3.93646497       5.46240904        2       0.00000000       0.00000000       0.00000000       0.00000000
Cu       6.57199121       3.93654689       5.46237341        2       0.00000000       0.00000000       0.00000000       0.00000000
Cu       1.31214107       6.55891270       5.42562024        2       0.00000000       0.00000000       0.00000000       0.00000000
Cu       3.92581724       6.56898373       5.44801105        2       0.00000000       0.00000000       0.00000000       0.00000000
Cu       6.57129252       6.56904789       5.44798864        2       0.00000000       0.00000000       0.00000000       0.00000000
Cu      -0.00862415      -0.02189261       7.17785216        1       0.00000000      -0.00196080       0.00714526      -0.00172928
Cu       2.63050930      -0.06361431       7.24921070        1       0.00000000       0.00096880      -0.00472663       0.02671370
Cu       5.26565814       0.00247656       7.19489510        1       0.00000000      -0.00084832       0.00374322       0.00190342
Cu      -0.04598364       2.61320436       7.26091809        1       0.00000000       0.03417248       0.00237173      -0.01232562
Cu       2.56481651       2.53623410       7.41634013        1       0.00000000      -0.01562492       0.00409897       0.01359808
Cu       5.23117214       2.63430000       7.18236690        1       0.00000000       0.01124834       0.00567869       0.00379996
Cu       0.03626459       5.20316480       7.32961602        1       0.00000000      -0.00180854       0.02708131      -0.01779475
Cu       2.61714317       5.12997341       7.34172103        1       0.00000000       0.01224745      -0.02389530       0.01464310
Cu       5.24821466       5.26545247       7.18361206        1       0.00000000       0.00202034       0.00625034      -0.00078215
C        1.25445071       3.85763498       8.28204118        0       0.00000000       0.03934352       0.11554510      -0.05740060
O        1.06797050       3.78175579       9.64592548        0       0.00000000       0.00227007       0.17150168      -0.06402479
H        1.81326937       3.25404668      10.07094607        0       0.00000000      -0.06837267      -0.01845900      -0.06268415
H        2.70966772       1.17509436       8.34989121        0       0.00000000       0.06051902      -0.00909128       0.01661487
