29
Lattice="7.872856191053 0.0 0.0 0.0 7.872856191053 0.0 0.0 0.0 21.56695" Properties=species:S:1:pos:R:3:tags:I:1:initial_magmoms:R:1:forces:R:3 energy=-148924.254770706 pbc="T T F"
Cu       0.00000000      -0.00000000       3.58870000        3       0.00000000       0.00000000       0.00000000       0.00000000
Cu       2.62428540      -0.00000000       3.58870000        3       0.00000000       0.00000000       0.00000000       0.00000000
Cu       5.24857079      -0.00000000       3.58870000        3       0.00000000       0.00000000       0.00000000       0.00000000
Cu       0.00000000       2.62428540       3.58870000        3       0.00000000       0.00000000       0.00000000       0.00000000
Cu       2.62428540       2.62428540       3.58870000        3       0.00000000       0.00000000       0.00000000       0.00000000
Cu       5.24857079       2.62428540       3.58870000        3       0.00000000       0.00000000       0.00000000       0.00000000
Cu       0.00000000       5.24857079       3.58870000        3       0.00000000       0.00000000       0.00000000       0.00000000
Cu       2.62428540       5.24857079       3.58870000        3       0.00000000       0.00000000       0.00000000       0.00000000
Cu       5.24857079       5.24857079       3.58870000        3       0.00000000       0.00000000       0.00000000       0.00000000
Cu       1.31211342       1.31397011       5.42568063        2       0.00000000       0.00000000       0.00000000       0.00000000
Cu       3.92582671       1.30392176       5.44803675        2       0.00000000       0.00000000       0.00000000       0.00000000
Cu       6.57123570       1.30404304       5.44797887        2       0.00000000       0.00000000       0.00000000       0.00000000
Cu       1.31214371       3.93643317       5.47450036        2       0.00000000       0.00000000       0.00000000       0.00000000
Cu       3.92512754       3.93646497       5.46240904        2       0.00000000       0.00000000       0.00000000       0.00000000
Cu       6.57199121       3.93654689       5.46237341        2       0.00000000       0.00000000       0.00000000       0.00000000
Cu       1.31214107       6.55891270       5.42562024        2       0.00000000       0.00000000       0.00000000       0.00000000
Cu       3.92581724       6.56898373       5.44801105        2       0.00000000       0.00000000       0.00000000       0.00000000
Cu       6.57129252       6.56904789       5.44798864        2       0.00000000       0.00000000       0.00000000       0.00000000
Cu       0.00067910       0.00208596       7.17468932        1       0.00000000       0.00633366      -0.00749657       0.01876674
Cu       2.62478288       0.00158274       7.17532073        1       0.00000000      -0.01083643      -0.00645244       0.01634399
Cu       5.24784805      -0.00008606       7.19990264        1       0.00000000       0.00463287       0.00132926       0.01593518
Cu      -0.00827615       2.60984068       7.26225154        1       0.00000000       0.00155937      -0.00587651       0.02122857
Cu       2.63020237       2.60846770       7.26106790        1       0.00000000       0.00548416      -0.00329898       0.02816695
Cu       5.24767325       2.60885674       7.17062608        1       0.00000000       0.00174732       0.00654243       0.02003841
Cu      -0.00842475       5.26466404       7.26313470        1       0.00000000       0.00643496       0.00088112       0.01811676
Cu       2.63002272       5.26528376       7.26202611        1       0.00000000       0.00213273       0.00104850       0.02396294
Cu       5.24697047       5.26504842       7.17108355        1       0.00000000       0.00432948      -0.01003939       0.01815662
C        1.31299512       3.93567140       7.98285489        0       0.00000000      -0.01550170       0.01248836       0.00982136
H        1.30865319       3.93748181       9.08486281        0       0.00000000       0.00602872      -0.00233328       0.02603628
