30
Lattice="7.872856191053 0.0 0.0 0.0 7.872856191053 0.0 0.0 0.0 21.56695" Properties=species:S:1:pos:R:3:tags:I:1:initial_magmoms:R:1:forces:R:3 energy=-149367.901381973 pbc="T T F"
Cu       0.00000000      -0.00000000       3.58870000        3       0.00000000       0.00000000       0.00000000       0.00000000
Cu       2.62428540      -0.00000000       3.58870000        3       0.00000000       0.00000000       0.00000000       0.00000000
Cu       5.24857079      -0.00000000       3.58870000        3       0.00000000       0.00000000       0.00000000       0.00000000
Cu       0.00000000       2.62428540       3.58870000        3       0.00000000       0.00000000       0.00000000       0.00000000
Cu       2.62428540       2.62428540       3.58870000        3       0.00000000       0.00000000       0.00000000       0.00000000
Cu       5.24857079       2.62428540       3.58870000        3       0.00000000       0.00000000       0.00000000       0.00000000
Cu       0.00000000       5.24857079       3.58870000        3       0.00000000       0.00000000       0.00000000       0.00000000
Cu       2.62428540       5.24857079       3.58870000        3       0.00000000       0.00000000       0.00000000       0.00000000
Cu       5.24857079       5.24857079       3.58870000        3       0.00000000       0.00000000       0.00000000       0.00000000
Cu       1.31211342       1.31397011       5.42568063        2       0.00000000       0.00000000       0.00000000       0.00000000
Cu       3.92582671       1.30392176       5.44803675        2       0.00000000       0.00000000       0.00000000       0.00000000
Cu       6.57123570       1.30404304       5.44797887        2       0.00000000       0.00000000       0.00000000       0.00000000
Cu       1.31214371       3.93643317       5.47450036        2       0.00000000       0.00000000       0.00000000       0.00000000
Cu       3.92512754       3.93646497       5.46240904        2       0.00000000       0.00000000       0.00000000       0.00000000
Cu       6.57199121       3.93654689       5.46237341        2       0.00000000       0.00000000       0.00000000       0.00000000
Cu       1.31214107       6.55891270       5.42562024        2       0.00000000       0.00000000       0.00000000       0.00000000
Cu       3.92581724       6.56898373       5.44801105        2       0.00000000       0.00000000       0.00000000       0.00000000
Cu       6.57129252       6.56904789       5.44798864        2       0.00000000       0.00000000       0.00000000       0.00000000
Cu       0.01681924      -0.00169471       7.19054277        1       0.00000000       0.00539469       0.00177714      -0.00015426
Cu       2.62336566      -0.00007843       7.25989450        1       0.00000000       0.00417524       0.00301606       0.01440440
Cu       5.25246721       0.00030315       7.25757013        1       0.00000000       0.00336498      -0.00113521       0.00998921
Cu      -0.01584409       2.59779558       7.19814007        1       0.00000000       0.00230609      -0.00285961      -0.00154352
Cu       2.61044235       2.63455267       7.29133995        1       0.00000000      -0.01804571       0.01274607       0.01164760
Cu       5.27242421       2.62961233       7.18102054        1       0.00000000      -0.00628421      -0.00045088       0.00108041
Cu      -0.01529501       5.27474368       7.19837162        1       0.00000000      -0.00102300       0.00080879       0.00166597
Cu       2.61317173       5.25189407       7.28352369        1       0.00000000      -0.00453481      -0.00414038       0.01920227
Cu       5.26608066       5.25025539       7.18279570        1       0.00000000       0.00347951      -0.00356549      -0.00192456
C        2.49775756       3.85382311       8.84546905        0       0.00000000       0.04473205       0.26145478      -0.05771074
O        2.34837547       3.82725002       9.99948044        0       0.00000000       0.27198267       0.23066512      -0.01165578
H        3.89291411       0.40409321       8.48264873        0       0.00000000       0.15025939      -0.51541874      -0.34224077
